data/ENWL/enwl_kron_reduced/network_13/Feeder_2/Lines.txt
! Imported from Lines.txt, with modified linecodes
! ---------------------------------------------------------------------------------------------
New Line.LINE0 Bus1=sourcebus.1.2.3 Bus2=1.1.2.3 phases=3 Linecode=LC7 Length=1 Units=m
New Line.LINE1 Bus1=1.1.2.3 Bus2=2.1.2.3 phases=3 Linecode=LC7 Length=0.14241 Units=m
New Line.LINE2 Bus1=2.1.2.3 Bus2=3.1.2.3 phases=3 Linecode=LC7 Length=0.077621 Units=m
New Line.LINE3 Bus1=3.1.2.3 Bus2=4.1.2.3 phases=3 Linecode=LC7 Length=0.082299 Units=m
New Line.LINE4 Bus1=4.1.2.3 Bus2=5.1.2.3 phases=3 Linecode=LC7 Length=0.070766 Units=m
New Line.LINE5 Bus1=5.1.2.3 Bus2=6.1.2.3 phases=3 Linecode=LC7 Length=0.086823 Units=m
New Line.LINE6 Bus1=6.1.2.3 Bus2=7.1.2.3 phases=3 Linecode=LC7 Length=0.1072 Units=m
New Line.LINE7 Bus1=7.1.2.3 Bus2=8.1.2.3 phases=3 Linecode=LC7 Length=0.1005 Units=m
New Line.LINE8 Bus1=8.1.2.3 Bus2=9.1.2.3 phases=3 Linecode=LC7 Length=1.1359 Units=m
New Line.LINE9 Bus1=9.1.2.3 Bus2=10.1.2.3 phases=3 Linecode=LC7 Length=0.071785 Units=m
New Line.LINE10 Bus1=10.1.2.3 Bus2=11.1.2.3 phases=3 Linecode=LC7 Length=0.074518 Units=m
New Line.LINE11 Bus1=11.1.2.3 Bus2=12.1.2.3 phases=3 Linecode=LC7 Length=0.063631 Units=m
New Line.LINE12 Bus1=12.1.2.3 Bus2=13.1.2.3 phases=3 Linecode=LC7 Length=0.10187 Units=m
New Line.LINE13 Bus1=13.1.2.3 Bus2=14.1.2.3 phases=3 Linecode=LC7 Length=0.25299 Units=m
New Line.LINE14 Bus1=14.1.2.3 Bus2=15.1.2.3 phases=3 Linecode=LC7 Length=0.067941 Units=m
New Line.LINE15 Bus1=15.1.2.3 Bus2=16.1.2.3 phases=3 Linecode=LC7 Length=0.10433 Units=m
New Line.LINE16 Bus1=16.1.2.3 Bus2=17.1.2.3 phases=3 Linecode=LC7 Length=0.053152 Units=m
New Line.LINE17 Bus1=17.1.2.3 Bus2=18.1.2.3 phases=3 Linecode=LC7 Length=0.13923 Units=m
New Line.LINE18 Bus1=18.1.2.3 Bus2=19.1.2.3 phases=3 Linecode=LC7 Length=3.321 Units=m
New Line.LINE19 Bus1=19.1.2.3 Bus2=20.1.2.3 phases=3 Linecode=LC7 Length=0.44183 Units=m
New Line.LINE20 Bus1=20.1.2.3 Bus2=21.1.2.3 phases=3 Linecode=LC7 Length=0.16031 Units=m
New Line.LINE21 Bus1=21.1.2.3 Bus2=22.1.2.3 phases=3 Linecode=LC8 Length=0.47756 Units=m
New Line.LINE22 Bus1=21.1.2.3 Bus2=23.1.2.3 phases=3 Linecode=LC8 Length=0.5238 Units=m
New Line.LINE23 Bus1=22.1.2.3 Bus2=24.1.2.3 phases=3 Linecode=LC8 Length=1.8492 Units=m
New Line.LINE24 Bus1=23.1.2.3 Bus2=25.1.2.3 phases=3 Linecode=LC8 Length=0.47054 Units=m
New Line.LINE25 Bus1=24.1.2.3 Bus2=26.1.2.3 phases=3 Linecode=LC8 Length=4.1326 Units=m
New Line.LINE26 Bus1=25.1.2.3 Bus2=27.1.2.3 phases=3 Linecode=LC8 Length=0.209 Units=m
New Line.LINE27 Bus1=26.1.2.3 Bus2=28.1.2.3 phases=3 Linecode=LC8 Length=6.8097 Units=m
New Line.LINE28 Bus1=27.1.2.3 Bus2=29.1.2.3 phases=3 Linecode=LC8 Length=0.45951 Units=m
New Line.LINE29 Bus1=28.1.2.3 Bus2=30.1.2.3 phases=3 Linecode=LC8 Length=0.47472 Units=m
New Line.LINE30 Bus1=29.1.2.3 Bus2=31.1.2.3 phases=3 Linecode=LC8 Length=0.50776 Units=m
New Line.LINE31 Bus1=30.1.2.3 Bus2=32.1.2.3 phases=3 Linecode=LC8 Length=0.23662 Units=m
New Line.LINE32 Bus1=31.1.2.3 Bus2=33.1.2.3 phases=3 Linecode=LC8 Length=4.4557 Units=m
New Line.LINE33 Bus1=32.1.2.3 Bus2=34.1.2.3 phases=3 Linecode=LC8 Length=0.26056 Units=m
New Line.LINE34 Bus1=33.1.2.3 Bus2=35.1.2.3 phases=3 Linecode=LC8 Length=6.7185 Units=m
New Line.LINE35 Bus1=34.1.2.3 Bus2=36.1.2.3 phases=3 Linecode=LC8 Length=0.21654 Units=m
New Line.LINE36 Bus1=35.1.2.3 Bus2=37.1.2.3 phases=3 Linecode=LC8 Length=0.66769 Units=m
New Line.LINE37 Bus1=36.1.2.3 Bus2=38.1.2.3 phases=3 Linecode=LC8 Length=0.30414 Units=m
New Line.LINE38 Bus1=37.1.2.3 Bus2=39.1.2.3 phases=3 Linecode=LC8 Length=0.632 Units=m
New Line.LINE39 Bus1=38.1.2.3 Bus2=40.1.2.3 phases=3 Linecode=LC8 Length=0.33343 Units=m
New Line.LINE40 Bus1=39.1.2.3 Bus2=41.1.2.3 phases=3 Linecode=LC8 Length=0.40459 Units=m
New Line.LINE41 Bus1=40.1.2.3 Bus2=42.1.2.3 phases=3 Linecode=LC8 Length=0.57781 Units=m
New Line.LINE42 Bus1=41.1.2.3 Bus2=43.1.2.3 phases=3 Linecode=LC8 Length=0.32165 Units=m
New Line.LINE43 Bus1=42.1.2.3 Bus2=44.1.2.3 phases=3 Linecode=LC8 Length=1.1182 Units=m
New Line.LINE44 Bus1=43.1.2.3 Bus2=45.1.2.3 phases=3 Linecode=LC8 Length=0.32287 Units=m
New Line.LINE45 Bus1=44.1.2.3 Bus2=46.1.2.3 phases=3 Linecode=LC8 Length=19.418 Units=m
New Line.LINE46 Bus1=45.1.2.3 Bus2=47.1.2.3 phases=3 Linecode=LC8 Length=0.27109 Units=m
New Line.LINE47 Bus1=46.1.2.3 Bus2=48.1.2.3 phases=3 Linecode=LC8 Length=0.59511 Units=m
New Line.LINE48 Bus1=47.1.2.3 Bus2=49.1.2.3 phases=3 Linecode=LC8 Length=0.25355 Units=m
New Line.LINE49 Bus1=48.1.2.3 Bus2=50.1.2.3 phases=3 Linecode=LC8 Length=0.49346 Units=m
New Line.LINE50 Bus1=49.1.2.3 Bus2=51.1.2.3 phases=3 Linecode=LC8 Length=0.24217 Units=m
New Line.LINE51 Bus1=50.1.2.3 Bus2=52.1.2.3 phases=3 Linecode=LC8 Length=0.372 Units=m
New Line.LINE52 Bus1=51.1.2.3 Bus2=53.1.2.3 phases=3 Linecode=LC8 Length=3.8254 Units=m
New Line.LINE53 Bus1=52.1.2.3 Bus2=54.1.2.3 phases=3 Linecode=LC8 Length=0.31295 Units=m
New Line.LINE54 Bus1=53.1.2.3 Bus2=55.1.2.3 phases=3 Linecode=LC8 Length=9.171 Units=m
New Line.LINE55 Bus1=54.1.2.3 Bus2=56.1.2.3 phases=3 Linecode=LC8 Length=0.33539 Units=m
New Line.LINE56 Bus1=55.1.2.3 Bus2=57.1.2.3 phases=3 Linecode=LC8 Length=8.5632 Units=m
New Line.LINE57 Bus1=55.1.2.3 Bus2=58.1.2.3 phases=3 Linecode=LC8 Length=0.30656 Units=m
New Line.LINE58 Bus1=56.1.2.3 Bus2=59.1.2.3 phases=3 Linecode=LC8 Length=0.50585 Units=m
New Line.LINE59 Bus1=57.1.2.3 Bus2=60.1.2.3 phases=3 Linecode=LC8 Length=0.52658 Units=m
New Line.LINE60 Bus1=58.1.2.3 Bus2=61.1.2.3 phases=3 Linecode=LC8 Length=0.25014 Units=m
New Line.LINE61 Bus1=59.1.2.3 Bus2=62.1.2.3 phases=3 Linecode=LC8 Length=0.76644 Units=m
New Line.LINE62 Bus1=60.1.2.3 Bus2=63.1.2.3 phases=3 Linecode=LC8 Length=1.4985 Units=m
New Line.LINE63 Bus1=61.1.2.3 Bus2=64.1.2.3 phases=3 Linecode=LC8 Length=0.35966 Units=m
New Line.LINE64 Bus1=62.1.2.3 Bus2=65.1.2.3 phases=3 Linecode=LC8 Length=6.5365 Units=m
New Line.LINE65 Bus1=63.1.2.3 Bus2=66.1.2.3 phases=3 Linecode=LC8 Length=0.80933 Units=m
New Line.LINE66 Bus1=64.1.2.3 Bus2=67.1.2.3 phases=3 Linecode=LC8 Length=0.67784 Units=m
New Line.LINE67 Bus1=65.1.2.3 Bus2=68.1.2.3 phases=3 Linecode=LC8 Length=3.4036 Units=m
New Line.LINE68 Bus1=66.1.2.3 Bus2=69.1.2.3 phases=3 Linecode=LC8 Length=0.68754 Units=m
New Line.LINE69 Bus1=67.1.2.3 Bus2=70.1.2.3 phases=3 Linecode=LC8 Length=0.46422 Units=m
New Line.LINE70 Bus1=68.1.2.3 Bus2=71.1.2.3 phases=3 Linecode=LC8 Length=0.34656 Units=m
New Line.LINE71 Bus1=69.1.2.3 Bus2=72.1.2.3 phases=3 Linecode=LC8 Length=0.47556 Units=m
New Line.LINE72 Bus1=70.1.2.3 Bus2=73.1.2.3 phases=3 Linecode=LC6 Length=0.17029 Units=m
New Line.LINE73 Bus1=70.1.2.3 Bus2=74.1.2.3 phases=3 Linecode=LC8 Length=0.41177 Units=m
New Line.LINE74 Bus1=71.1.2.3 Bus2=75.1.2.3 phases=3 Linecode=LC8 Length=0.22 Units=m
New Line.LINE75 Bus1=72.1.2.3 Bus2=76.1.2.3 phases=3 Linecode=LC8 Length=0.16585 Units=m
New Line.LINE76 Bus1=73.1.2.3 Bus2=77.1.2.3 phases=3 Linecode=LC6 Length=0.20061 Units=m
New Line.LINE77 Bus1=75.1.2.3 Bus2=78.1.2.3 phases=3 Linecode=LC8 Length=0.19746 Units=m
New Line.LINE78 Bus1=76.1.2.3 Bus2=79.1.2.3 phases=3 Linecode=LC8 Length=0.10519 Units=m
New Line.LINE79 Bus1=77.1.2.3 Bus2=80.1.2.3 phases=3 Linecode=LC6 Length=0.1894 Units=m
New Line.LINE80 Bus1=78.1.2.3 Bus2=81.1.2.3 phases=3 Linecode=LC8 Length=0.27926 Units=m
New Line.LINE81 Bus1=79.1.2.3 Bus2=82.1.2.3 phases=3 Linecode=LC8 Length=0.15903 Units=m
New Line.LINE82 Bus1=80.1.2.3 Bus2=83.1.2.3 phases=3 Linecode=LC6 Length=0.76707 Units=m
New Line.LINE83 Bus1=81.1.2.3 Bus2=84.1.2.3 phases=3 Linecode=LC8 Length=0.31235 Units=m
New Line.LINE84 Bus1=82.1.2.3 Bus2=85.1.2.3 phases=3 Linecode=LC8 Length=0.24259 Units=m
New Line.LINE85 Bus1=83.1.2.3 Bus2=86.1.2.3 phases=3 Linecode=LC6 Length=8.772 Units=m
New Line.LINE86 Bus1=84.1.2.3 Bus2=87.1.2.3 phases=3 Linecode=LC8 Length=0.27414 Units=m
New Line.LINE87 Bus1=85.1.2.3 Bus2=88.1.2.3 phases=3 Linecode=LC8 Length=0.21023 Units=m
New Line.LINE88 Bus1=87.1.2.3 Bus2=89.1.2.3 phases=3 Linecode=LC8 Length=0.44071 Units=m
New Line.LINE89 Bus1=88.1.2.3 Bus2=90.1.2.3 phases=3 Linecode=LC8 Length=0.17464 Units=m
New Line.LINE90 Bus1=89.1.2.3 Bus2=91.1.2.3 phases=3 Linecode=LC8 Length=0.31831 Units=m
New Line.LINE91 Bus1=90.1.2.3 Bus2=92.1.2.3 phases=3 Linecode=LC8 Length=0.138 Units=m
New Line.LINE92 Bus1=91.1.2.3 Bus2=93.1.2.3 phases=3 Linecode=LC8 Length=0.36405 Units=m
New Line.LINE93 Bus1=92.1.2.3 Bus2=94.1.2.3 phases=3 Linecode=LC8 Length=0.21246 Units=m
New Line.LINE94 Bus1=93.1.2.3 Bus2=95.1.2.3 phases=3 Linecode=LC8 Length=0.27873 Units=m
New Line.LINE95 Bus1=94.1.2.3 Bus2=96.1.2.3 phases=3 Linecode=LC8 Length=1.211 Units=m
New Line.LINE96 Bus1=95.1.2.3 Bus2=97.1.2.3 phases=3 Linecode=LC8 Length=0.26387 Units=m
New Line.LINE97 Bus1=96.1.2.3 Bus2=98.1.2.3 phases=3 Linecode=LC8 Length=8.6912 Units=m
New Line.LINE98 Bus1=97.1.2.3 Bus2=99.1.2.3 phases=3 Linecode=LC8 Length=0.71454 Units=m
New Line.LINE99 Bus1=97.1.2.3 Bus2=100.1.2.3 phases=3 Linecode=LC1 Length=4.9663 Units=m
New Line.LINE100 Bus1=99.1.2.3 Bus2=101.1.2.3 phases=3 Linecode=LC8 Length=0.52362 Units=m
New Line.LINE101 Bus1=100.1.2.3 Bus2=102.1.2.3 phases=3 Linecode=LC1 Length=6.3681 Units=m
New Line.LINE102 Bus1=100.1.2.3 Bus2=103.1.2.3 phases=3 Linecode=LC1 Length=0.59513 Units=m
New Line.LINE103 Bus1=101.1.2.3 Bus2=104.1.2.3 phases=3 Linecode=LC8 Length=0.56036 Units=m
New Line.LINE104 Bus1=102.1.2.3 Bus2=105.1.2.3 phases=3 Linecode=LC1 Length=1.7653 Units=m
New Line.LINE105 Bus1=102.1.2.3 Bus2=106.1.2.3 phases=3 Linecode=LC8 Length=0.6813 Units=m
New Line.LINE106 Bus1=104.1.2.3 Bus2=107.1.2.3 phases=3 Linecode=LC8 Length=0.64981 Units=m
New Line.LINE107 Bus1=105.1.2.3 Bus2=108.1.2.3 phases=3 Linecode=LC1 Length=1.8118 Units=m
New Line.LINE108 Bus1=106.1.2.3 Bus2=109.1.2.3 phases=3 Linecode=LC1 Length=9.2643 Units=m
New Line.LINE109 Bus1=106.1.2.3 Bus2=110.1.2.3 phases=3 Linecode=LC8 Length=3.2493 Units=m
New Line.LINE110 Bus1=107.1.2.3 Bus2=111.1.2.3 phases=3 Linecode=LC8 Length=0.52816 Units=m
New Line.LINE111 Bus1=108.1.2.3 Bus2=112.1.2.3 phases=3 Linecode=LC1 Length=1.4499 Units=m
New Line.LINE112 Bus1=110.1.2.3 Bus2=113.1.2.3 phases=3 Linecode=LC8 Length=2.6456 Units=m
New Line.LINE113 Bus1=111.1.2.3 Bus2=114.1.2.3 phases=3 Linecode=LC8 Length=0.47877 Units=m
New Line.LINE114 Bus1=112.1.2.3 Bus2=115.1.2.3 phases=3 Linecode=LC1 Length=1.5744 Units=m
New Line.LINE115 Bus1=113.1.2.3 Bus2=116.1.2.3 phases=3 Linecode=LC1 Length=6.525 Units=m
New Line.LINE116 Bus1=113.1.2.3 Bus2=117.1.2.3 phases=3 Linecode=LC8 Length=5.0967 Units=m
New Line.LINE117 Bus1=114.1.2.3 Bus2=118.1.2.3 phases=3 Linecode=LC8 Length=1.2644 Units=m
New Line.LINE118 Bus1=115.1.2.3 Bus2=119.1.2.3 phases=3 Linecode=LC1 Length=4.9661 Units=m
New Line.LINE119 Bus1=117.1.2.3 Bus2=120.1.2.3 phases=3 Linecode=LC1 Length=6.6662 Units=m
New Line.LINE120 Bus1=117.1.2.3 Bus2=121.1.2.3 phases=3 Linecode=LC8 Length=1.9266 Units=m
New Line.LINE121 Bus1=118.1.2.3 Bus2=122.1.2.3 phases=3 Linecode=LC8 Length=0.94646 Units=m
New Line.LINE122 Bus1=118.1.2.3 Bus2=123.1.2.3 phases=3 Linecode=LC8 Length=3.072 Units=m
New Line.LINE123 Bus1=118.1.2.3 Bus2=124.1.2.3 phases=3 Linecode=LC8 Length=0.14005 Units=m
New Line.LINE124 Bus1=119.1.2.3 Bus2=125.1.2.3 phases=3 Linecode=LC1 Length=0.28432 Units=m
New Line.LINE125 Bus1=121.1.2.3 Bus2=126.1.2.3 phases=3 Linecode=LC8 Length=0.9867 Units=m
New Line.LINE126 Bus1=121.1.2.3 Bus2=127.1.2.3 phases=3 Linecode=LC8 Length=1.6616 Units=m
New Line.LINE127 Bus1=122.1.2.3 Bus2=128.1.2.3 phases=3 Linecode=LC8 Length=0.63923 Units=m
New Line.LINE128 Bus1=124.1.2.3 Bus2=129.1.2.3 phases=3 Linecode=LC8 Length=0.24385 Units=m
New Line.LINE129 Bus1=125.1.2.3 Bus2=130.1.2.3 phases=3 Linecode=LC1 Length=0.28359 Units=m
New Line.LINE130 Bus1=127.1.2.3 Bus2=131.1.2.3 phases=3 Linecode=LC8 Length=1.7358 Units=m
New Line.LINE131 Bus1=128.1.2.3 Bus2=132.1.2.3 phases=3 Linecode=LC8 Length=0.9233 Units=m
New Line.LINE132 Bus1=129.1.2.3 Bus2=133.1.2.3 phases=3 Linecode=LC8 Length=0.21964 Units=m
New Line.LINE133 Bus1=130.1.2.3 Bus2=134.1.2.3 phases=3 Linecode=LC1 Length=0.28461 Units=m
New Line.LINE134 Bus1=131.1.2.3 Bus2=135.1.2.3 phases=3 Linecode=LC1 Length=6.7864 Units=m
New Line.LINE135 Bus1=131.1.2.3 Bus2=136.1.2.3 phases=3 Linecode=LC8 Length=3.0693 Units=m
New Line.LINE136 Bus1=132.1.2.3 Bus2=137.1.2.3 phases=3 Linecode=LC8 Length=4.374 Units=m
New Line.LINE137 Bus1=133.1.2.3 Bus2=138.1.2.3 phases=3 Linecode=LC8 Length=0.25947 Units=m
New Line.LINE138 Bus1=134.1.2.3 Bus2=139.1.2.3 phases=3 Linecode=LC1 Length=0.28387 Units=m
New Line.LINE139 Bus1=136.1.2.3 Bus2=140.1.2.3 phases=3 Linecode=LC8 Length=0.5555 Units=m
New Line.LINE140 Bus1=136.1.2.3 Bus2=141.1.2.3 phases=3 Linecode=LC8 Length=1.9025 Units=m
New Line.LINE141 Bus1=138.1.2.3 Bus2=142.1.2.3 phases=3 Linecode=LC8 Length=0.31513 Units=m
New Line.LINE142 Bus1=139.1.2.3 Bus2=143.1.2.3 phases=3 Linecode=LC1 Length=0.28378 Units=m
New Line.LINE143 Bus1=140.1.2.3 Bus2=144.1.2.3 phases=3 Linecode=LC8 Length=0.34174 Units=m
New Line.LINE144 Bus1=141.1.2.3 Bus2=145.1.2.3 phases=3 Linecode=LC8 Length=1.4715 Units=m
New Line.LINE145 Bus1=141.1.2.3 Bus2=146.1.2.3 phases=3 Linecode=LC8 Length=0.94778 Units=m
New Line.LINE146 Bus1=142.1.2.3 Bus2=147.1.2.3 phases=3 Linecode=LC8 Length=0.302 Units=m
New Line.LINE147 Bus1=143.1.2.3 Bus2=148.1.2.3 phases=3 Linecode=LC1 Length=0.28469 Units=m
New Line.LINE148 Bus1=144.1.2.3 Bus2=149.1.2.3 phases=3 Linecode=LC8 Length=0.17957 Units=m
New Line.LINE149 Bus1=146.1.2.3 Bus2=150.1.2.3 phases=3 Linecode=LC1 Length=7.0422 Units=m
New Line.LINE150 Bus1=146.1.2.3 Bus2=151.1.2.3 phases=3 Linecode=LC8 Length=4.1864 Units=m
New Line.LINE151 Bus1=147.1.2.3 Bus2=152.1.2.3 phases=3 Linecode=LC8 Length=0.29679 Units=m
New Line.LINE152 Bus1=148.1.2.3 Bus2=153.1.2.3 phases=3 Linecode=LC1 Length=0.139 Units=m
New Line.LINE153 Bus1=149.1.2.3 Bus2=154.1.2.3 phases=3 Linecode=LC8 Length=0.18613 Units=m
New Line.LINE154 Bus1=151.1.2.3 Bus2=155.1.2.3 phases=3 Linecode=LC8 Length=3.8728 Units=m
New Line.LINE155 Bus1=151.1.2.3 Bus2=156.1.2.3 phases=3 Linecode=LC8 Length=1.0915 Units=m
New Line.LINE156 Bus1=152.1.2.3 Bus2=157.1.2.3 phases=3 Linecode=LC8 Length=0.25946 Units=m
New Line.LINE157 Bus1=153.1.2.3 Bus2=158.1.2.3 phases=3 Linecode=LC1 Length=0.13206 Units=m
New Line.LINE158 Bus1=154.1.2.3 Bus2=159.1.2.3 phases=3 Linecode=LC8 Length=0.13507 Units=m
New Line.LINE159 Bus1=155.1.2.3 Bus2=160.1.2.3 phases=3 Linecode=LC8 Length=1.7761 Units=m
New Line.LINE160 Bus1=155.1.2.3 Bus2=161.1.2.3 phases=3 Linecode=LC8 Length=3.2333 Units=m
New Line.LINE161 Bus1=155.1.2.3 Bus2=162.1.2.3 phases=3 Linecode=LC8 Length=2.7813 Units=m
New Line.LINE162 Bus1=155.1.2.3 Bus2=163.1.2.3 phases=3 Linecode=LC8 Length=2.1678 Units=m
New Line.LINE163 Bus1=156.1.2.3 Bus2=164.1.2.3 phases=3 Linecode=LC1 Length=6.1608 Units=m
New Line.LINE164 Bus1=157.1.2.3 Bus2=165.1.2.3 phases=3 Linecode=LC8 Length=0.62201 Units=m
New Line.LINE165 Bus1=158.1.2.3 Bus2=166.1.2.3 phases=3 Linecode=LC1 Length=0.39409 Units=m
New Line.LINE166 Bus1=159.1.2.3 Bus2=167.1.2.3 phases=3 Linecode=LC8 Length=0.18809 Units=m
New Line.LINE167 Bus1=161.1.2.3 Bus2=168.1.2.3 phases=3 Linecode=LC8 Length=2.0511 Units=m
New Line.LINE168 Bus1=161.1.2.3 Bus2=169.1.2.3 phases=3 Linecode=LC8 Length=2.0511 Units=m
New Line.LINE169 Bus1=161.1.2.3 Bus2=170.1.2.3 phases=3 Linecode=LC8 Length=0.96083 Units=m
New Line.LINE170 Bus1=163.1.2.3 Bus2=171.1.2.3 phases=3 Linecode=LC1 Length=0.43198 Units=m
New Line.LINE171 Bus1=163.1.2.3 Bus2=172.1.2.3 phases=3 Linecode=LC8 Length=0.10463 Units=m
New Line.LINE172 Bus1=165.1.2.3 Bus2=173.1.2.3 phases=3 Linecode=LC8 Length=1.1114 Units=m
New Line.LINE173 Bus1=166.1.2.3 Bus2=174.1.2.3 phases=3 Linecode=LC1 Length=0.53352 Units=m
New Line.LINE174 Bus1=167.1.2.3 Bus2=175.1.2.3 phases=3 Linecode=LC8 Length=0.32201 Units=m
New Line.LINE175 Bus1=168.1.2.3 Bus2=176.1.2.3 phases=3 Linecode=LC8 Length=2.133 Units=m
New Line.LINE176 Bus1=168.1.2.3 Bus2=177.1.2.3 phases=3 Linecode=LC8 Length=0.18916 Units=m
New Line.LINE177 Bus1=168.1.2.3 Bus2=178.1.2.3 phases=3 Linecode=LC8 Length=2.133 Units=m
New Line.LINE178 Bus1=170.1.2.3 Bus2=179.1.2.3 phases=3 Linecode=LC1 Length=6.2944 Units=m
New Line.LINE179 Bus1=171.1.2.3 Bus2=180.1.2.3 phases=3 Linecode=LC1 Length=0.10124 Units=m
New Line.LINE180 Bus1=173.1.2.3 Bus2=181.1.2.3 phases=3 Linecode=LC8 Length=0.97376 Units=m
New Line.LINE181 Bus1=174.1.2.3 Bus2=182.1.2.3 phases=3 Linecode=LC1 Length=0.53413 Units=m
New Line.LINE182 Bus1=175.1.2.3 Bus2=183.1.2.3 phases=3 Linecode=LC8 Length=0.23547 Units=m
New Line.LINE183 Bus1=176.1.2.3 Bus2=184.1.2.3 phases=3 Linecode=LC8 Length=0.20887 Units=m
New Line.LINE184 Bus1=176.1.2.3 Bus2=185.1.2.3 phases=3 Linecode=LC8 Length=6.6797 Units=m
New Line.LINE185 Bus1=176.1.2.3 Bus2=186.1.2.3 phases=3 Linecode=LC8 Length=0.065513 Units=m
New Line.LINE186 Bus1=177.1.2.3 Bus2=187.1.2.3 phases=3 Linecode=LC8 Length=0.17698 Units=m
New Line.LINE187 Bus1=180.1.2.3 Bus2=188.1.2.3 phases=3 Linecode=LC1 Length=0.099322 Units=m
New Line.LINE188 Bus1=181.1.2.3 Bus2=189.1.2.3 phases=3 Linecode=LC8 Length=0.37387 Units=m
New Line.LINE189 Bus1=181.1.2.3 Bus2=190.1.2.3 phases=3 Linecode=LC8 Length=0.10127 Units=m
New Line.LINE190 Bus1=182.1.2.3 Bus2=191.1.2.3 phases=3 Linecode=LC1 Length=0.5351 Units=m
New Line.LINE191 Bus1=183.1.2.3 Bus2=192.1.2.3 phases=3 Linecode=LC8 Length=0.22361 Units=m
New Line.LINE192 Bus1=184.1.2.3 Bus2=193.1.2.3 phases=3 Linecode=LC8 Length=0.10633 Units=m
New Line.LINE193 Bus1=185.1.2.3 Bus2=194.1.2.3 phases=3 Linecode=LC8 Length=1.2231 Units=m
New Line.LINE194 Bus1=185.1.2.3 Bus2=195.1.2.3 phases=3 Linecode=LC8 Length=2.4997 Units=m
New Line.LINE195 Bus1=185.1.2.3 Bus2=196.1.2.3 phases=3 Linecode=LC8 Length=1.2231 Units=m
New Line.LINE196 Bus1=185.1.2.3 Bus2=197.1.2.3 phases=3 Linecode=LC8 Length=0.53779 Units=m
New Line.LINE197 Bus1=186.1.2.3 Bus2=198.1.2.3 phases=3 Linecode=LC1 Length=6.4318 Units=m
New Line.LINE198 Bus1=186.1.2.3 Bus2=199.1.2.3 phases=3 Linecode=LC8 Length=6.0763 Units=m
New Line.LINE199 Bus1=187.1.2.3 Bus2=200.1.2.3 phases=3 Linecode=LC8 Length=0.18966 Units=m
...
! ---------------------------------------------------------------------------------------------